/batch
/config,noeldb,1     ! force off writing results to database
*get,_wallstrt,active,,time,wall
! ANSYS input file written by Workbench version 2024 R2
! File used for geometry attach: C:\Users\jjk\Desktop\Capstone CAD\Version 2\Heating Plate.stp
/title,Single Heating Plate Simulation--Steady-State Thermal (A5)
! ****** Begin Custom Load Command Snippet ******
/COM, ACT Extensions:
/COM,     LSDYNA, 2024.2
/COM,     5f463412-bd3e-484b-87e7-cbc0a665e474, wbex
/COM,/COM,     ANSYSMotion, 2024.2
/COM,     20180725-3f81-49eb-9f31-41364844c769, wbex
/COM,
! ****** End   Custom Load Command Snippet ******
*DIM,_wb_ProjectScratch_dir,string,248
_wb_ProjectScratch_dir(1) = 'C:\Users\jjk\Desktop\Capstone CAD\Version 2\_ProjectScratch\Scr93FD\'
*DIM,_wb_SolverFiles_dir,string,248
_wb_SolverFiles_dir(1) = 'C:\Users\jjk\Desktop\Capstone CAD\Version 2\Single Heating Plate Simulation_files\dp0\SYS\MECH\'
*DIM,_wb_userfiles_dir,string,248
_wb_userfiles_dir(1) = 'C:\Users\jjk\Desktop\Capstone CAD\Version 2\Single Heating Plate Simulation_files\user_files\'
/com,--- Data in consistent MKS units. See Solving Units in the help system for more information.
/units,MKS
/nopr
/wb,file,start              !  signify a WB generated input file
/prep7
! Turn off shape checking because checks already performed inside WB mesher.
! See help system for more information.
SHPP,OFF,,NOWARN
/nolist
etcon,set             ! allow ANSYS to choose best KEYOP's for 180x elements, resets any applicable keyopt to MAPDL defaults
/com,*********** Nodes for the whole assembly ***********
nblock,3,,4614
(1i9,3e20.9e3)
     2876    -7.402828548E-02     1.258657055E-02    -1.013968000E-01
     2877    -7.178710901E-02     1.258657055E-02    -1.013968000E-01
     2878    -6.730475607E-02     1.258657055E-02    -1.013968000E-01
     2879    -6.282240312E-02     1.258657055E-02    -1.013968000E-01
     2880    -5.834005018E-02     1.258657055E-02    -1.013968000E-01
     2881    -5.385769724E-02     1.258657055E-02    -1.013968000E-01
     2882    -4.937534430E-02     1.258657055E-02    -1.013968000E-01
     2883    -4.489299136E-02     1.258657055E-02    -1.013968000E-01
     2884    -4.041063842E-02     1.258657055E-02    -1.013968000E-01
     2885    -3.592828548E-02     1.258657055E-02    -1.013968000E-01
     2886    -3.144593254E-02     1.258657055E-02    -1.013968000E-01
     2887    -2.696357959E-02     1.258657055E-02    -1.013968000E-01
     2888    -2.248122665E-02     1.258657055E-02    -1.013968000E-01
     2889    -1.799887371E-02     1.258657055E-02    -1.013968000E-01
     2890    -1.351652077E-02     1.258657055E-02    -1.013968000E-01
     2891    -9.034167830E-03     1.258657055E-02    -1.013968000E-01
     2892    -4.551814889E-03     1.258657055E-02    -1.013968000E-01
     2893    -6.946194755E-05     1.258657055E-02    -1.013968000E-01
     2894     4.412890994E-03     1.258657055E-02    -1.013968000E-01
     2895     8.895243935E-03     1.258657055E-02    -1.013968000E-01
! ... 4176 like lines cut
/wb,elem,start            !  set before creation of elements
/com,*********** Elements for Body 1 'Heating board|Solid1' ***********
et,1,279
eblock,19,solid,,186
(19i9)
        1        1        1        1        0        0        0        0       20        0        1       45       46      380       53      206      205      342      198
      657      664      694      658     1124     1126     1112     1111      660      663     1410      693
        1        1        1        1        0        0        0        0       20        0        2       53      380      381      115      198      342      343      136
      694     1468      887      692     1112     1409      950      948      693     1410     1412      886
        1        1        1        1        0        0        0        0       20        0        3      124      125      396      390      127      126      331      330
      904      908     1478      906      909      913     1385      917      905      907     1387     1386
        1        1        1        1        0        0        0        0       20        0        4       57      125      124       86      194      126      127      165
      710      904      819      709      912      909      914     1046      711      907      905      820
        1        1        1        1        0        0        0        0       20        0        5        9      110      125       57      242      141      126      194
      510      877      710      507      968      910      912     1102      511      878      907      711
        1        1        1        1        0        0        0        0       20        0        6       58      395      396      125      193      329      331      126
      716     1483      908      714     1101     1383      913      911      715     1384     1387      907
        1        1        1        1        0        0        0        0       20        0        7       58      125      110       78      193      126      141      173
      714      877      795      713      911      910      967     1063      715      907      878      796
        1        1        1        1        0        0        0        0       20        0        8        9       64       63      107      242      187      188      144
      508      735      737      509     1090     1089      978      979      511      741      738      873
        1        1        1        1        0        0        0        0       20        0        9        9      107       84      110      242      144      167      141
      509      812      814      510      979      977      966      968      511      873      815      878
        1        1        1        1        0        0        0        0       20        0       10       56      116       86      124      195      135      165      127
      704      818      819      705      945      943      914      916      706      889      820      905
! ... 353 like lines cut
! Material Id = {968DA505-C59F-477E-AD8E-7C26C2843219}
/com,*********** Elements for Body 2 'flat 32 gauge nichrome wire|Solid1' ***********
et,2,279
eblock,19,solid,,36
(19i9)
        2        2        2        2        0        0        0        0       20        0      187     1590     1591     1593     1594     1668     1703     1665     1664
     1807     1810     1814     1808     1962     1958     1956     1957     1809     1811     1815     1817
        2        2        2        2        0        0        0        0       20        0      188     1589     1590     1594     1595     1669     1668     1664     1663
     1804     1808     1816     1805     1961     1957     1954     1955     1806     1809     1817     1819
        2        2        2        2        0        0        0        0       20        0      189     1588     1589     1595     1596     1670     1669     1663     1662
     1801     1805     1818     1802     1963     1955     1952     1953     1803     1806     1819     1821
        2        2        2        2        0        0        0        0       20        0      190     1587     1588     1596     1597     1671     1670     1662     1661
     1798     1802     1820     1799     1964     1953     1950     1951     1800     1803     1821     1823
        2        2        2        2        0        0        0        0       20        0      191     1586     1587     1597     1598     1672     1671     1661     1660
     1795     1799     1822     1796     1965     1951     1948     1949     1797     1800     1823     1825
        2        2        2        2        0        0        0        0       20        0      192     1585     1586     1598     1599     1673     1672     1660     1659
     1792     1796     1824     1793     1966     1949     1946     1947     1794     1797     1825     1827
        2        2        2        2        0        0        0        0       20        0      193     1584     1585     1599     1600     1674     1673     1659     1658
     1789     1793     1826     1790     1967     1947     1944     1945     1791     1794     1827     1829
        2        2        2        2        0        0        0        0       20        0      194     1583     1584     1600     1601     1675     1674     1658     1657
     1786     1790     1828     1787     1968     1945     1942     1943     1788     1791     1829     1831
        2        2        2        2        0        0        0        0       20        0      195     1582     1583     1601     1602     1676     1675     1657     1656
     1783     1787     1830     1784     1969     1943     1940     1941     1785     1788     1831     1833
        2        2        2        2        0        0        0        0       20        0      196     1581     1582     1602     1603     1677     1676     1656     1655
     1780     1784     1832     1781     1970     1941     1938     1939     1782     1785     1833     1835
! ... 53 like lines cut
! Material Id = {392828DF-115E-4463-AAC9-6BC33B4A28BC}
/com,*********** Elements for Body 3 'flat 32 gauge nichrome wire|Solid1[2]' ***********
et,3,279
eblock,19,solid,,36
(19i9)
        3        3        3        3        0        0        0        0       20        0      223     2030     2031     2033     2034     2108     2143     2105     2104
     2247     2250     2254     2248     2402     2398     2396     2397     2249     2251     2255     2257
        3        3        3        3        0        0        0        0       20        0      224     2029     2030     2034     2035     2109     2108     2104     2103
     2244     2248     2256     2245     2401     2397     2394     2395     2246     2249     2257     2259
        3        3        3        3        0        0        0        0       20        0      225     2028     2029     2035     2036     2110     2109     2103     2102
     2241     2245     2258     2242     2403     2395     2392     2393     2243     2246     2259     2261
        3        3        3        3        0        0        0        0       20        0      226     2027     2028     2036     2037     2111     2110     2102     2101
     2238     2242     2260     2239     2404     2393     2390     2391     2240     2243     2261     2263
        3        3        3        3        0        0        0        0       20        0      227     2026     2027     2037     2038     2112     2111     2101     2100
     2235     2239     2262     2236     2405     2391     2388     2389     2237     2240     2263     2265
        3        3        3        3        0        0        0        0       20        0      228     2025     2026     2038     2039     2113     2112     2100     2099
     2232     2236     2264     2233     2406     2389     2386     2387     2234     2237     2265     2267
        3        3        3        3        0        0        0        0       20        0      229     2024     2025     2039     2040     2114     2113     2099     2098
     2229     2233     2266     2230     2407     2387     2384     2385     2231     2234     2267     2269
        3        3        3        3        0        0        0        0       20        0      230     2023     2024     2040     2041     2115     2114     2098     2097
     2226     2230     2268     2227     2408     2385     2382     2383     2228     2231     2269     2271
        3        3        3        3        0        0        0        0       20        0      231     2022     2023     2041     2042     2116     2115     2097     2096
     2223     2227     2270     2224     2409     2383     2380     2381     2225     2228     2271     2273
        3        3        3        3        0        0        0        0       20        0      232     2021     2022     2042     2043     2117     2116     2096     2095
     2220     2224     2272     2221     2410     2381     2378     2379     2222     2225     2273     2275
! ... 53 like lines cut
! Material Id = {5F7CD9A6-71EB-4C72-8E72-70FC70F44267}
/com,*********** Elements for Body 4 'flat 32 gauge nichrome wire|Solid1[3]' ***********
et,4,279
eblock,19,solid,,36
(19i9)
        4        4        4        4        0        0        0        0       20        0      259     2470     2471     2473     2474     2548     2583     2545     2544
     2687     2690     2694     2688     2842     2838     2836     2837     2689     2691     2695     2697
        4        4        4        4        0        0        0        0       20        0      260     2469     2470     2474     2475     2549     2548     2544     2543
     2684     2688     2696     2685     2841     2837     2834     2835     2686     2689     2697     2699
        4        4        4        4        0        0        0        0       20        0      261     2468     2469     2475     2476     2550     2549     2543     2542
     2681     2685     2698     2682     2843     2835     2832     2833     2683     2686     2699     2701
        4        4        4        4        0        0        0        0       20        0      262     2467     2468     2476     2477     2551     2550     2542     2541
     2678     2682     2700     2679     2844     2833     2830     2831     2680     2683     2701     2703
        4        4        4        4        0        0        0        0       20        0      263     2466     2467     2477     2478     2552     2551     2541     2540
     2675     2679     2702     2676     2845     2831     2828     2829     2677     2680     2703     2705
        4        4        4        4        0        0        0        0       20        0      264     2465     2466     2478     2479     2553     2552     2540     2539
     2672     2676     2704     2673     2846     2829     2826     2827     2674     2677     2705     2707
        4        4        4        4        0        0        0        0       20        0      265     2464     2465     2479     2480     2554     2553     2539     2538
     2669     2673     2706     2670     2847     2827     2824     2825     2671     2674     2707     2709
        4        4        4        4        0        0        0        0       20        0      266     2463     2464     2480     2481     2555     2554     2538     2537
     2666     2670     2708     2667     2848     2825     2822     2823     2668     2671     2709     2711
        4        4        4        4        0        0        0        0       20        0      267     2462     2463     2481     2482     2556     2555     2537     2536
     2663     2667     2710     2664     2849     2823     2820     2821     2665     2668     2711     2713
        4        4        4        4        0        0        0        0       20        0      268     2461     2462     2482     2483     2557     2556     2536     2535
     2660     2664     2712     2661     2850     2821     2818     2819     2662     2665     2713     2715
! ... 53 like lines cut
! Material Id = {1AACA876-3C06-4E51-961A-D40DDD3463E7}
/com,*********** Elements for Body 5 'flat 32 gauge nichrome wire|Solid1[4]' ***********
et,5,279
eblock,19,solid,,36
(19i9)
        5        5        5        5        0        0        0        0       20        0      295     2910     2911     2913     2914     2988     3023     2985     2984
     3127     3130     3134     3128     3282     3278     3276     3277     3129     3131     3135     3137
        5        5        5        5        0        0        0        0       20        0      296     2909     2910     2914     2915     2989     2988     2984     2983
     3124     3128     3136     3125     3281     3277     3274     3275     3126     3129     3137     3139
        5        5        5        5        0        0        0        0       20        0      297     2908     2909     2915     2916     2990     2989     2983     2982
     3121     3125     3138     3122     3283     3275     3272     3273     3123     3126     3139     3141
        5        5        5        5        0        0        0        0       20        0      298     2907     2908     2916     2917     2991     2990     2982     2981
     3118     3122     3140     3119     3284     3273     3270     3271     3120     3123     3141     3143
        5        5        5        5        0        0        0        0       20        0      299     2906     2907     2917     2918     2992     2991     2981     2980
     3115     3119     3142     3116     3285     3271     3268     3269     3117     3120     3143     3145
        5        5        5        5        0        0        0        0       20        0      300     2905     2906     2918     2919     2993     2992     2980     2979
     3112     3116     3144     3113     3286     3269     3266     3267     3114     3117     3145     3147
        5        5        5        5        0        0        0        0       20        0      301     2904     2905     2919     2920     2994     2993     2979     2978
     3109     3113     3146     3110     3287     3267     3264     3265     3111     3114     3147     3149
        5        5        5        5        0        0        0        0       20        0      302     2903     2904     2920     2921     2995     2994     2978     2977
     3106     3110     3148     3107     3288     3265     3262     3263     3108     3111     3149     3151
        5        5        5        5        0        0        0        0       20        0      303     2902     2903     2921     2922     2996     2995     2977     2976
     3103     3107     3150     3104     3289     3263     3260     3261     3105     3108     3151     3153
        5        5        5        5        0        0        0        0       20        0      304     2901     2902     2922     2923     2997     2996     2976     2975
     3100     3104     3152     3101     3290     3261     3258     3259     3102     3105     3153     3155
! ... 53 like lines cut
! Material Id = {91E93CD4-F7BC-4E69-8B38-C193388C9A91}
/com,*********** Elements for Body 6 'flat 32 gauge nichrome wire|Solid1[5]' ***********
et,6,279
eblock,19,solid,,36
(19i9)
        6        6        6        6        0        0        0        0       20        0      331     3350     3351     3353     3354     3428     3463     3425     3424
     3567     3570     3574     3568     3722     3718     3716     3717     3569     3571     3575     3577
        6        6        6        6        0        0        0        0       20        0      332     3349     3350     3354     3355     3429     3428     3424     3423
     3564     3568     3576     3565     3721     3717     3714     3715     3566     3569     3577     3579
        6        6        6        6        0        0        0        0       20        0      333     3348     3349     3355     3356     3430     3429     3423     3422
     3561     3565     3578     3562     3723     3715     3712     3713     3563     3566     3579     3581
        6        6        6        6        0        0        0        0       20        0      334     3347     3348     3356     3357     3431     3430     3422     3421
     3558     3562     3580     3559     3724     3713     3710     3711     3560     3563     3581     3583
        6        6        6        6        0        0        0        0       20        0      335     3346     3347     3357     3358     3432     3431     3421     3420
     3555     3559     3582     3556     3725     3711     3708     3709     3557     3560     3583     3585
        6        6        6        6        0        0        0        0       20        0      336     3345     3346     3358     3359     3433     3432     3420     3419
     3552     3556     3584     3553     3726     3709     3706     3707     3554     3557     3585     3587
        6        6        6        6        0        0        0        0       20        0      337     3344     3345     3359     3360     3434     3433     3419     3418
     3549     3553     3586     3550     3727     3707     3704     3705     3551     3554     3587     3589
        6        6        6        6        0        0        0        0       20        0      338     3343     3344     3360     3361     3435     3434     3418     3417
     3546     3550     3588     3547     3728     3705     3702     3703     3548     3551     3589     3591
        6        6        6        6        0        0        0        0       20        0      339     3342     3343     3361     3362     3436     3435     3417     3416
     3543     3547     3590     3544     3729     3703     3700     3701     3545     3548     3591     3593
        6        6        6        6        0        0        0        0       20        0      340     3341     3342     3362     3363     3437     3436     3416     3415
     3540     3544     3592     3541     3730     3701     3698     3699     3542     3545     3593     3595
! ... 53 like lines cut
! Material Id = {197286FB-2234-4D12-8F28-22E7F93DDAE9}
/com,*********** Elements for Body 7 'flat 32 gauge nichrome wire|Solid1[6]' ***********
et,7,279
eblock,19,solid,,36
(19i9)
        7        7        7        7        0        0        0        0       20        0      367     3790     3791     3793     3794     3868     3903     3865     3864
     4007     4010     4014     4008     4162     4158     4156     4157     4009     4011     4015     4017
        7        7        7        7        0        0        0        0       20        0      368     3789     3790     3794     3795     3869     3868     3864     3863
     4004     4008     4016     4005     4161     4157     4154     4155     4006     4009     4017     4019
        7        7        7        7        0        0        0        0       20        0      369     3788     3789     3795     3796     3870     3869     3863     3862
     4001     4005     4018     4002     4163     4155     4152     4153     4003     4006     4019     4021
        7        7        7        7        0        0        0        0       20        0      370     3787     3788     3796     3797     3871     3870     3862     3861
     3998     4002     4020     3999     4164     4153     4150     4151     4000     4003     4021     4023
        7        7        7        7        0        0        0        0       20        0      371     3786     3787     3797     3798     3872     3871     3861     3860
     3995     3999     4022     3996     4165     4151     4148     4149     3997     4000     4023     4025
        7        7        7        7        0        0        0        0       20        0      372     3785     3786     3798     3799     3873     3872     3860     3859
     3992     3996     4024     3993     4166     4149     4146     4147     3994     3997     4025     4027
        7        7        7        7        0        0        0        0       20        0      373     3784     3785     3799     3800     3874     3873     3859     3858
     3989     3993     4026     3990     4167     4147     4144     4145     3991     3994     4027     4029
        7        7        7        7        0        0        0        0       20        0      374     3783     3784     3800     3801     3875     3874     3858     3857
     3986     3990     4028     3987     4168     4145     4142     4143     3988     3991     4029     4031
        7        7        7        7        0        0        0        0       20        0      375     3782     3783     3801     3802     3876     3875     3857     3856
     3983     3987     4030     3984     4169     4143     4140     4141     3985     3988     4031     4033
        7        7        7        7        0        0        0        0       20        0      376     3781     3782     3802     3803     3877     3876     3856     3855
     3980     3984     4032     3981     4170     4141     4138     4139     3982     3985     4033     4035
! ... 53 like lines cut
! Material Id = {9B420EBF-F432-4F29-AAAC-C61C8FE54B89}
/wb,elem,end               !  done creating elements
/com,*********** Send User Defined Coordinate System(s) ***********
csys,0
toffst,273.15,      ! Temperature offset from absolute zero
/wb,mat,start              !  starting to send materials
/com,*********** Send Materials ***********
MP,KXX,1,0.34,	! W m^-1 C^-1
MP,DENS,1,2500,	! kg m^-3
MP,C,1,500,	! J kg^-1 C^-1
MP,UVID,1,d32c66b3-3bcb-433f-8a4d-5e56d46d39a2
MP,UMID,1,8f7fcc0e-6652-4ba8-ba35-74720c6ddc95

MP,DENS,2,8900,	! kg m^-3
MP,C,2,460.6,	! J kg^-1 C^-1
MP,KXX,2,91.74,	! W m^-1 C^-1
MP,UVID,2,14131beb-1678-4433-8eae-88cb38e55bef
MP,UMID,2,88132b72-e64b-4578-b7d4-c1057a97c795

MP,DENS,3,8900,	! kg m^-3
MP,C,3,460.6,	! J kg^-1 C^-1
MP,KXX,3,91.74,	! W m^-1 C^-1
MP,UVID,3,14131beb-1678-4433-8eae-88cb38e55bef
MP,UMID,3,88132b72-e64b-4578-b7d4-c1057a97c795

MP,DENS,4,8900,	! kg m^-3
MP,C,4,460.6,	! J kg^-1 C^-1
MP,KXX,4,91.74,	! W m^-1 C^-1
MP,UVID,4,14131beb-1678-4433-8eae-88cb38e55bef
MP,UMID,4,88132b72-e64b-4578-b7d4-c1057a97c795

MP,DENS,5,8900,	! kg m^-3
MP,C,5,460.6,	! J kg^-1 C^-1
MP,KXX,5,91.74,	! W m^-1 C^-1
MP,UVID,5,14131beb-1678-4433-8eae-88cb38e55bef
MP,UMID,5,88132b72-e64b-4578-b7d4-c1057a97c795

MP,DENS,6,8900,	! kg m^-3
MP,C,6,460.6,	! J kg^-1 C^-1
MP,KXX,6,91.74,	! W m^-1 C^-1
MP,UVID,6,14131beb-1678-4433-8eae-88cb38e55bef
MP,UMID,6,88132b72-e64b-4578-b7d4-c1057a97c795

MP,DENS,7,8900,	! kg m^-3
MP,C,7,460.6,	! J kg^-1 C^-1
MP,KXX,7,91.74,	! W m^-1 C^-1
MP,UVID,7,14131beb-1678-4433-8eae-88cb38e55bef
MP,UMID,7,88132b72-e64b-4578-b7d4-c1057a97c795

/wb,mat,end                !  done sending materials
!************************* Model Summary ********************
!Heating board|Solid1,	Mica,	matid,	1
!flat 32 gauge nichrome wire|Solid1,	Nickel,	matid,	2
!flat 32 gauge nichrome wire|Solid1[2],	Nickel,	matid,	3
!flat 32 gauge nichrome wire|Solid1[3],	Nickel,	matid,	4
!flat 32 gauge nichrome wire|Solid1[4],	Nickel,	matid,	5
!flat 32 gauge nichrome wire|Solid1[5],	Nickel,	matid,	6
!flat 32 gauge nichrome wire|Solid1[6],	Nickel,	matid,	7
!************************* End Model Summary ********************
! get the diagonal of the bounding box. Needed later for other things
*get,_xmin,node,,mnloc,x
*get,_ymin,node,,mnloc,y
*get,_zmin,node,,mnloc,z
*get,_xmax,node,,mxloc,x
*get,_ymax,node,,mxloc,y
*get,_zmax,node,,mxloc,z
_ASMDIAG=(_xmax-_xmin)*(_xmax-_xmin)+(_ymax-_ymin)*(_ymax-_ymin)+(_zmax-_zmin)*(_zmax-_zmin)
_ASMDIAG=SQRT(_ASMDIAG)
/wb,contact,start          !  starting to send contact
/com,*********** Create Contact "Contact Region" ***********
/com,            Real Constant Set For Above Contact Is 9 & 8 
*set,tid,9
*set,cid,8
r,tid
r,cid
et,tid,170
et,cid,174
eblock,10,,,21
(15i9)
     1761        9        9        9        0       30       29       31       31      592      593       31      596
     1762        9        9        9        0      440      119       71       89      897      770      768      831
     1763        9        9        9        0      117      119      440      445      891      897     1527      893
     1764        9        9        9        0       30       31       55      118      596      601      700      598
     1765        9        9        9        0      118       72      117       30      774      773      597      598
     1766        9        9        9        0       70      104      106      105      763      868      870      764
     1767        9        9        9        0       22       70      105       23      563      764      567      562
     1768        9        9        9        0      444       30      117      445      600      597      893     1532
     1769        9        9        9        0       71      104       96       89      769      851      829      768
     1770        9        9        9        0       24       23      105       62      566      567      732      571
     1771        9        9        9        0       70      433       96      104      766      853      851      763
     1772        9        9        9        0       28      100       31       29      589      602      593      587
     1773        9        9        9        0       91       32      100       28      605      606      589      588
     1774        9        9        9        0      428      433       70       22     1516      766      563      565
     1775        9        9        9        0      430      429       23       24     1517      569      566      574
     1776        9        9        9        0      431      430       24       25     1518      574      570      578
     1777        9        9        9        0      432      431       25       26     1519      578      575      581
     1778        9        9        9        0      414      413       26       13     1500      580      529      532
     1779        9        9        9        0      413      427      432       26     1501     1514      581      580
     1780        9        9        9        0      444      443       29       30     1531      595      592      600
     1781        9        9        9        0      447      448       32       91     1534      608      605      838
-1
eblock,10,,,21
(15i9)
     1782        8        8        8        0       30       29       31       31      592      593       31      596
     1783        8        8        8        0      440      119       71       89      897      770      768      831
     1784        8        8        8        0      117      119      440      445      891      897     1527      893
     1785        8        8        8        0       30       31       55      118      596      601      700      598
     1786        8        8        8        0      118       72      117       30      774      773      597      598
     1787        8        8        8        0       70      104      106      105      763      868      870      764
     1788        8        8        8        0       22       70      105       23      563      764      567      562
     1789        8        8        8        0      444       30      117      445      600      597      893     1532
     1790        8        8        8        0       71      104       96       89      769      851      829      768
     1791        8        8        8        0       24       23      105       62      566      567      732      571
     1792        8        8        8        0       70      433       96      104      766      853      851      763
     1793        8        8        8        0       28      100       31       29      589      602      593      587
     1794        8        8        8        0       91       32      100       28      605      606      589      588
     1795        8        8        8        0      428      433       70       22     1516      766      563      565
     1796        8        8        8        0      430      429       23       24     1517      569      566      574
     1797        8        8        8        0      431      430       24       25     1518      574      570      578
     1798        8        8        8        0      432      431       25       26     1519      578      575      581
     1799        8        8        8        0      414      413       26       13     1500      580      529      532
     1800        8        8        8        0      413      427      432       26     1501     1514      581      580
     1801        8        8        8        0      444      443       29       30     1531      595      592      600
     1802        8        8        8        0      447      448       32       91     1534      608      605      838
-1
eblock,10,,,36
(15i9)
     1803        8        9        8        0     1703     1668     1590     1591     1962     1809     1807     1811
     1804        8        9        8        0     1668     1669     1589     1590     1961     1806     1804     1809
     1805        8        9        8        0     1669     1670     1588     1589     1963     1803     1801     1806
     1806        8        9        8        0     1670     1671     1587     1588     1964     1800     1798     1803
     1807        8        9        8        0     1671     1672     1586     1587     1965     1797     1795     1800
     1808        8        9        8        0     1672     1673     1585     1586     1966     1794     1792     1797
     1809        8        9        8        0     1673     1674     1584     1585     1967     1791     1789     1794
     1810        8        9        8        0     1674     1675     1583     1584     1968     1788     1786     1791
     1811        8        9        8        0     1675     1676     1582     1583     1969     1785     1783     1788
     1812        8        9        8        0     1676     1677     1581     1582     1970     1782     1780     1785
     1813        8        9        8        0     1677     1678     1580     1581     1971     1779     1777     1782
     1814        8        9        8        0     1678     1679     1579     1580     1972     1776     1774     1779
     1815        8        9        8        0     1679     1680     1578     1579     1973     1773     1771     1776
     1816        8        9        8        0     1680     1681     1577     1578     1974     1770     1768     1773
     1817        8        9        8        0     1681     1682     1576     1577     1975     1767     1765     1770
     1818        8        9        8        0     1682     1683     1575     1576     1976     1764     1762     1767
     1819        8        9        8        0     1683     1684     1574     1575     1977     1761     1759     1764
     1820        8        9        8        0     1684     1685     1573     1574     1978     1758     1756     1761
     1821        8        9        8        0     1685     1686     1572     1573     1979     1755     1753     1758
     1822        8        9        8        0     1686     1687     1571     1572     1980     1752     1750     1755
! ... 17 like lines cut
eblock,10,,,36
(15i9)
     1839        9        8        9        0     1703     1668     1590     1591     1962     1809     1807     1811
     1840        9        8        9        0     1668     1669     1589     1590     1961     1806     1804     1809
     1841        9        8        9        0     1669     1670     1588     1589     1963     1803     1801     1806
     1842        9        8        9        0     1670     1671     1587     1588     1964     1800     1798     1803
     1843        9        8        9        0     1671     1672     1586     1587     1965     1797     1795     1800
     1844        9        8        9        0     1672     1673     1585     1586     1966     1794     1792     1797
     1845        9        8        9        0     1673     1674     1584     1585     1967     1791     1789     1794
     1846        9        8        9        0     1674     1675     1583     1584     1968     1788     1786     1791
     1847        9        8        9        0     1675     1676     1582     1583     1969     1785     1783     1788
     1848        9        8        9        0     1676     1677     1581     1582     1970     1782     1780     1785
     1849        9        8        9        0     1677     1678     1580     1581     1971     1779     1777     1782
     1850        9        8        9        0     1678     1679     1579     1580     1972     1776     1774     1779
     1851        9        8        9        0     1679     1680     1578     1579     1973     1773     1771     1776
     1852        9        8        9        0     1680     1681     1577     1578     1974     1770     1768     1773
     1853        9        8        9        0     1681     1682     1576     1577     1975     1767     1765     1770
     1854        9        8        9        0     1682     1683     1575     1576     1976     1764     1762     1767
     1855        9        8        9        0     1683     1684     1574     1575     1977     1761     1759     1764
     1856        9        8        9        0     1684     1685     1573     1574     1978     1758     1756     1761
     1857        9        8        9        0     1685     1686     1572     1573     1979     1755     1753     1758
     1858        9        8        9        0     1686     1687     1571     1572     1980     1752     1750     1755
! ... 17 like lines cut
keyo,cid,8,2               ! auto create asymmetric contact (from Program Controlled setting)
keyo,cid,10,0              ! adjust contact stiffness each NR iteration (from Program Controlled setting)
keyo,cid,12,5              ! bonded always
keyo,cid,18,1              ! small sliding turned on by application
keyo,cid,2,0               ! augmented Lagrange (from Program Controlled setting)
keyo,cid,4,0               ! on Gauss point (from Program Controlled setting)
keyo,cid,9,1               ! ignore initial gaps/penetration
keyo,cid,7,0               ! No Prediction
rmod,tid,3,10.      ! FKN
rmod,tid,5,0.       ! ICONT
rmod,tid,6,0.       ! PINB
rmod,tid,10,0.      ! CNOF
rmod,tid,12,0.      ! FKT
rmod,tid,36,44      ! WB DSID
rmod,cid,3,10.      ! FKN
rmod,cid,5,0.       ! ICONT
rmod,cid,6,0.       ! PINB
rmod,cid,10,0.      ! CNOF
rmod,cid,12,0.      ! FKT
rmod,cid,36,44      ! WB DSID
*set,_maxkxx,917400.
rmod,cid,14,_maxkxx/_ASMDIAG         ! TCC, Divide by Length since Traction Based
rmod,tid,14,_maxkxx/_ASMDIAG      ! TCC, Divide by Length since Traction Based
keyo,cid,1,2     ! Pure thermal contact
/com,*********** Create Contact "Contact Region 2" ***********
/com,            Real Constant Set For Above Contact Is 11 & 10 
*set,tid,11
*set,cid,10
r,tid
r,cid
et,tid,170
et,cid,174
eblock,10,,,21
(15i9)
     1875       11       11       11        0      117       72      116      119      773      772      888      891
     1876       11       11       11        0      116       86       71      119      818      767      770      888
     1877       11       11       11        0       30       31       55      118      596      601      700      598
     1878       11       11       11        0      389      118       55      383      895      700      702     1471
     1879       11       11       11        0      389      388       72      118     1476      776      774      895
     1880       11       11       11        0      118       72      117       30      774      773      597      598
     1881       11       11       11        0       86      106      104       71      817      868      769      767
     1882       11       11       11        0       70      104      106      105      763      868      870      764
     1883       11       11       11        0       65       62      105      106      731      732      870      743
     1884       11       11       11        0       24       23      105       62      566      567      732      571
     1885       11       11       11        0       99       55       31      100      699      601      602      859
     1886       11       11       11        0       32       33       99      100      604      610      859      606
     1887       11       11       11        0       33       34       55       99      609      614      699      610
     1888       11       11       11        0      385      383       55       34     1470      702      614      616
     1889       11       11       11        0      399      397       62       65     1484      734      731      745
     1890       11       11       11        0       26       25      402       13      575      577      531      529
     1891       11       11       11        0       24      403      402       25      573     1490      577      570
     1892       11       11       11        0      397      403       24       62     1485      573      571      734
     1893       11       11       11        0      415      414       13       14     1502      532      528      535
     1894       11       11       11        0      414      413       26       13     1500      580      529      532
     1895       11       11       11        0      448      449       33       32     1535      612      604      608
-1
eblock,10,,,21
(15i9)
     1896       10       10       10        0      117       72      116      119      773      772      888      891
     1897       10       10       10        0      116       86       71      119      818      767      770      888
     1898       10       10       10        0       30       31       55      118      596      601      700      598
     1899       10       10       10        0      389      118       55      383      895      700      702     1471
     1900       10       10       10        0      389      388       72      118     1476      776      774      895
     1901       10       10       10        0      118       72      117       30      774      773      597      598
     1902       10       10       10        0       86      106      104       71      817      868      769      767
     1903       10       10       10        0       70      104      106      105      763      868      870      764
     1904       10       10       10        0       65       62      105      106      731      732      870      743
     1905       10       10       10        0       24       23      105       62      566      567      732      571
     1906       10       10       10        0       99       55       31      100      699      601      602      859
     1907       10       10       10        0       32       33       99      100      604      610      859      606
     1908       10       10       10        0       33       34       55       99      609      614      699      610
     1909       10       10       10        0      385      383       55       34     1470      702      614      616
     1910       10       10       10        0      399      397       62       65     1484      734      731      745
     1911       10       10       10        0       26       25      402       13      575      577      531      529
     1912       10       10       10        0       24      403      402       25      573     1490      577      570
     1913       10       10       10        0      397      403       24       62     1485      573      571      734
     1914       10       10       10        0      415      414       13       14     1502      532      528      535
     1915       10       10       10        0      414      413       26       13     1500      580      529      532
     1916       10       10       10        0      448      449       33       32     1535      612      604      608
-1
eblock,10,,,36
(15i9)
     1917       10       11       10        0     2143     2108     2030     2031     2402     2249     2247     2251
     1918       10       11       10        0     2108     2109     2029     2030     2401     2246     2244     2249
     1919       10       11       10        0     2109     2110     2028     2029     2403     2243     2241     2246
     1920       10       11       10        0     2110     2111     2027     2028     2404     2240     2238     2243
     1921       10       11       10        0     2111     2112     2026     2027     2405     2237     2235     2240
     1922       10       11       10        0     2112     2113     2025     2026     2406     2234     2232     2237
     1923       10       11       10        0     2113     2114     2024     2025     2407     2231     2229     2234
     1924       10       11       10        0     2114     2115     2023     2024     2408     2228     2226     2231
     1925       10       11       10        0     2115     2116     2022     2023     2409     2225     2223     2228
     1926       10       11       10        0     2116     2117     2021     2022     2410     2222     2220     2225
     1927       10       11       10        0     2117     2118     2020     2021     2411     2219     2217     2222
     1928       10       11       10        0     2118     2119     2019     2020     2412     2216     2214     2219
     1929       10       11       10        0     2119     2120     2018     2019     2413     2213     2211     2216
     1930       10       11       10        0     2120     2121     2017     2018     2414     2210     2208     2213
     1931       10       11       10        0     2121     2122     2016     2017     2415     2207     2205     2210
     1932       10       11       10        0     2122     2123     2015     2016     2416     2204     2202     2207
     1933       10       11       10        0     2123     2124     2014     2015     2417     2201     2199     2204
     1934       10       11       10        0     2124     2125     2013     2014     2418     2198     2196     2201
     1935       10       11       10        0     2125     2126     2012     2013     2419     2195     2193     2198
     1936       10       11       10        0     2126     2127     2011     2012     2420     2192     2190     2195
! ... 17 like lines cut
eblock,10,,,36
(15i9)
     1953       11       10       11        0     2143     2108     2030     2031     2402     2249     2247     2251
     1954       11       10       11        0     2108     2109     2029     2030     2401     2246     2244     2249
     1955       11       10       11        0     2109     2110     2028     2029     2403     2243     2241     2246
     1956       11       10       11        0     2110     2111     2027     2028     2404     2240     2238     2243
     1957       11       10       11        0     2111     2112     2026     2027     2405     2237     2235     2240
     1958       11       10       11        0     2112     2113     2025     2026     2406     2234     2232     2237
     1959       11       10       11        0     2113     2114     2024     2025     2407     2231     2229     2234
     1960       11       10       11        0     2114     2115     2023     2024     2408     2228     2226     2231
     1961       11       10       11        0     2115     2116     2022     2023     2409     2225     2223     2228
     1962       11       10       11        0     2116     2117     2021     2022     2410     2222     2220     2225
     1963       11       10       11        0     2117     2118     2020     2021     2411     2219     2217     2222
     1964       11       10       11        0     2118     2119     2019     2020     2412     2216     2214     2219
     1965       11       10       11        0     2119     2120     2018     2019     2413     2213     2211     2216
     1966       11       10       11        0     2120     2121     2017     2018     2414     2210     2208     2213
     1967       11       10       11        0     2121     2122     2016     2017     2415     2207     2205     2210
     1968       11       10       11        0     2122     2123     2015     2016     2416     2204     2202     2207
     1969       11       10       11        0     2123     2124     2014     2015     2417     2201     2199     2204
     1970       11       10       11        0     2124     2125     2013     2014     2418     2198     2196     2201
     1971       11       10       11        0     2125     2126     2012     2013     2419     2195     2193     2198
     1972       11       10       11        0     2126     2127     2011     2012     2420     2192     2190     2195
! ... 17 like lines cut
keyo,cid,8,2               ! auto create asymmetric contact (from Program Controlled setting)
keyo,cid,10,0              ! adjust contact stiffness each NR iteration (from Program Controlled setting)
keyo,cid,12,5              ! bonded always
keyo,cid,18,1              ! small sliding turned on by application
keyo,cid,2,0               ! augmented Lagrange (from Program Controlled setting)
keyo,cid,4,0               ! on Gauss point (from Program Controlled setting)
keyo,cid,9,1               ! ignore initial gaps/penetration
keyo,cid,7,0               ! No Prediction
rmod,tid,3,10.      ! FKN
rmod,tid,5,0.       ! ICONT
rmod,tid,6,0.       ! PINB
rmod,tid,10,0.      ! CNOF
rmod,tid,12,0.      ! FKT
rmod,tid,36,47      ! WB DSID
rmod,cid,3,10.      ! FKN
rmod,cid,5,0.       ! ICONT
rmod,cid,6,0.       ! PINB
rmod,cid,10,0.      ! CNOF
rmod,cid,12,0.      ! FKT
rmod,cid,36,47      ! WB DSID
*set,_maxkxx,917400.
rmod,cid,14,_maxkxx/_ASMDIAG         ! TCC, Divide by Length since Traction Based
rmod,tid,14,_maxkxx/_ASMDIAG      ! TCC, Divide by Length since Traction Based
keyo,cid,1,2     ! Pure thermal contact
/com,*********** Create Contact "Contact Region 3" ***********
/com,            Real Constant Set For Above Contact Is 13 & 12 
*set,tid,13
*set,cid,12
r,tid
r,cid
et,tid,170
et,cid,174
eblock,10,,,18
(15i9)
     1989       13       13       13        0       57       86      124      125      709      819      904      710
     1990       13       13       13        0      110        9       57      125      510      507      710      877
     1991       13       13       13        0       64        9      107       63      508      509      737      735
     1992       13       13       13        0      116       56      124       86      704      705      819      818
     1993       13       13       13        0       64       65       57        9      740      708      507      508
     1994       13       13       13        0      386       56      116      387      707      704      890     1474
     1995       13       13       13        0        8       94       63      107      504      736      737      505
     1996       13       13       13        0        7       94        8       15      499      504      502      498
     1997       13       13       13        0      384       35       36        6      620      618      492      496
     1998       13       13       13        0      386      384        6       56     1473      496      493      707
     1999       13       13       13        0      385       34       35      384      616      613      620     1472
     2000       13       13       13        0       14      401       94        7      534      846      499      497
     2001       13       13       13        0      401      400       63       94     1488      739      736      846
     2002       13       13       13        0      400      398       64       63     1487      742      735      739
     2003       13       13       13        0      398      399       65       64     1486      745      740      742
     2004       13       13       13        0      417      416        7       15     1504      501      498      538
     2005       13       13       13        0      450      451       35       34     1537      621      613      617
     2006       13       13       13        0      451      452       36       35     1538      624      618      621
-1
eblock,10,,,18
(15i9)
     2007       12       12       12        0       57       86      124      125      709      819      904      710
     2008       12       12       12        0      110        9       57      125      510      507      710      877
     2009       12       12       12        0       64        9      107       63      508      509      737      735
     2010       12       12       12        0      116       56      124       86      704      705      819      818
     2011       12       12       12        0       64       65       57        9      740      708      507      508
     2012       12       12       12        0      386       56      116      387      707      704      890     1474
     2013       12       12       12        0        8       94       63      107      504      736      737      505
     2014       12       12       12        0        7       94        8       15      499      504      502      498
     2015       12       12       12        0      384       35       36        6      620      618      492      496
     2016       12       12       12        0      386      384        6       56     1473      496      493      707
     2017       12       12       12        0      385       34       35      384      616      613      620     1472
     2018       12       12       12        0       14      401       94        7      534      846      499      497
     2019       12       12       12        0      401      400       63       94     1488      739      736      846
     2020       12       12       12        0      400      398       64       63     1487      742      735      739
     2021       12       12       12        0      398      399       65       64     1486      745      740      742
     2022       12       12       12        0      417      416        7       15     1504      501      498      538
     2023       12       12       12        0      450      451       35       34     1537      621      613      617
     2024       12       12       12        0      451      452       36       35     1538      624      618      621
-1
eblock,10,,,36
(15i9)
     2025       12       13       12        0     2583     2548     2470     2471     2842     2689     2687     2691
     2026       12       13       12        0     2548     2549     2469     2470     2841     2686     2684     2689
     2027       12       13       12        0     2549     2550     2468     2469     2843     2683     2681     2686
     2028       12       13       12        0     2550     2551     2467     2468     2844     2680     2678     2683
     2029       12       13       12        0     2551     2552     2466     2467     2845     2677     2675     2680
     2030       12       13       12        0     2552     2553     2465     2466     2846     2674     2672     2677
     2031       12       13       12        0     2553     2554     2464     2465     2847     2671     2669     2674
     2032       12       13       12        0     2554     2555     2463     2464     2848     2668     2666     2671
     2033       12       13       12        0     2555     2556     2462     2463     2849     2665     2663     2668
     2034       12       13       12        0     2556     2557     2461     2462     2850     2662     2660     2665
     2035       12       13       12        0     2557     2558     2460     2461     2851     2659     2657     2662
     2036       12       13       12        0     2558     2559     2459     2460     2852     2656     2654     2659
     2037       12       13       12        0     2559     2560     2458     2459     2853     2653     2651     2656
     2038       12       13       12        0     2560     2561     2457     2458     2854     2650     2648     2653
     2039       12       13       12        0     2561     2562     2456     2457     2855     2647     2645     2650
     2040       12       13       12        0     2562     2563     2455     2456     2856     2644     2642     2647
     2041       12       13       12        0     2563     2564     2454     2455     2857     2641     2639     2644
     2042       12       13       12        0     2564     2565     2453     2454     2858     2638     2636     2641
     2043       12       13       12        0     2565     2566     2452     2453     2859     2635     2633     2638
     2044       12       13       12        0     2566     2567     2451     2452     2860     2632     2630     2635
! ... 17 like lines cut
eblock,10,,,36
(15i9)
     2061       13       12       13        0     2583     2548     2470     2471     2842     2689     2687     2691
     2062       13       12       13        0     2548     2549     2469     2470     2841     2686     2684     2689
     2063       13       12       13        0     2549     2550     2468     2469     2843     2683     2681     2686
     2064       13       12       13        0     2550     2551     2467     2468     2844     2680     2678     2683
     2065       13       12       13        0     2551     2552     2466     2467     2845     2677     2675     2680
     2066       13       12       13        0     2552     2553     2465     2466     2846     2674     2672     2677
     2067       13       12       13        0     2553     2554     2464     2465     2847     2671     2669     2674
     2068       13       12       13        0     2554     2555     2463     2464     2848     2668     2666     2671
     2069       13       12       13        0     2555     2556     2462     2463     2849     2665     2663     2668
     2070       13       12       13        0     2556     2557     2461     2462     2850     2662     2660     2665
     2071       13       12       13        0     2557     2558     2460     2461     2851     2659     2657     2662
     2072       13       12       13        0     2558     2559     2459     2460     2852     2656     2654     2659
     2073       13       12       13        0     2559     2560     2458     2459     2853     2653     2651     2656
     2074       13       12       13        0     2560     2561     2457     2458     2854     2650     2648     2653
     2075       13       12       13        0     2561     2562     2456     2457     2855     2647     2645     2650
     2076       13       12       13        0     2562     2563     2455     2456     2856     2644     2642     2647
     2077       13       12       13        0     2563     2564     2454     2455     2857     2641     2639     2644
     2078       13       12       13        0     2564     2565     2453     2454     2858     2638     2636     2641
     2079       13       12       13        0     2565     2566     2452     2453     2859     2635     2633     2638
     2080       13       12       13        0     2566     2567     2451     2452     2860     2632     2630     2635
! ... 17 like lines cut
keyo,cid,8,2               ! auto create asymmetric contact (from Program Controlled setting)
keyo,cid,10,0              ! adjust contact stiffness each NR iteration (from Program Controlled setting)
keyo,cid,12,5              ! bonded always
keyo,cid,18,1              ! small sliding turned on by application
keyo,cid,2,0               ! augmented Lagrange (from Program Controlled setting)
keyo,cid,4,0               ! on Gauss point (from Program Controlled setting)
keyo,cid,9,1               ! ignore initial gaps/penetration
keyo,cid,7,0               ! No Prediction
rmod,tid,3,10.      ! FKN
rmod,tid,5,0.       ! ICONT
rmod,tid,6,0.       ! PINB
rmod,tid,10,0.      ! CNOF
rmod,tid,12,0.      ! FKT
rmod,tid,36,50      ! WB DSID
rmod,cid,3,10.      ! FKN
rmod,cid,5,0.       ! ICONT
rmod,cid,6,0.       ! PINB
rmod,cid,10,0.      ! CNOF
rmod,cid,12,0.      ! FKT
rmod,cid,36,50      ! WB DSID
*set,_maxkxx,917400.
rmod,cid,14,_maxkxx/_ASMDIAG         ! TCC, Divide by Length since Traction Based
rmod,tid,14,_maxkxx/_ASMDIAG      ! TCC, Divide by Length since Traction Based
keyo,cid,1,2     ! Pure thermal contact
/com,*********** Create Contact "Contact Region 4" ***********
/com,            Real Constant Set For Above Contact Is 15 & 14 
*set,tid,15
*set,cid,14
r,tid
r,cid
et,tid,170
et,cid,174
eblock,10,,,14
(15i9)
     2097       15       15       15        0      390      396      125      124     1478      908      904      906
     2098       15       15       15        0      110        9       57      125      510      507      710      877
     2099       15       15       15        0       58      125      396      395      714      908     1483      716
     2100       15       15       15        0      110      125       58       78      877      714      713      795
     2101       15       15       15        0      110       84      107        9      814      812      509      510
     2102       15       15       15        0      124       56       76       61      705      703      727      728
     2103       15       15       15        0      390      124       61      392      906      728      730     1477
     2104       15       15       15        0      108       84      110       78      813      814      795      794
     2105       15       15       15        0        6       77       76       56      494      789      703      493
     2106       15       15       15        0       80        8      107       84      503      505      812      801
     2107       15       15       15        0       16       15        8       80      536      502      503      540
     2108       15       15       15        0       36       37       77        6      622      626      494      492
     2109       15       15       15        0      418      417       15       16     1505      538      536      542
     2110       15       15       15        0      452      453       37       36     1539      628      622      624
-1
eblock,10,,,14
(15i9)
     2111       14       14       14        0      390      396      125      124     1478      908      904      906
     2112       14       14       14        0      110        9       57      125      510      507      710      877
     2113       14       14       14        0       58      125      396      395      714      908     1483      716
     2114       14       14       14        0      110      125       58       78      877      714      713      795
     2115       14       14       14        0      110       84      107        9      814      812      509      510
     2116       14       14       14        0      124       56       76       61      705      703      727      728
     2117       14       14       14        0      390      124       61      392      906      728      730     1477
     2118       14       14       14        0      108       84      110       78      813      814      795      794
     2119       14       14       14        0        6       77       76       56      494      789      703      493
     2120       14       14       14        0       80        8      107       84      503      505      812      801
     2121       14       14       14        0       16       15        8       80      536      502      503      540
     2122       14       14       14        0       36       37       77        6      622      626      494      492
     2123       14       14       14        0      418      417       15       16     1505      538      536      542
     2124       14       14       14        0      452      453       37       36     1539      628      622      624
-1
eblock,10,,,36
(15i9)
     2125       14       15       14        0     3023     2988     2910     2911     3282     3129     3127     3131
     2126       14       15       14        0     2988     2989     2909     2910     3281     3126     3124     3129
     2127       14       15       14        0     2989     2990     2908     2909     3283     3123     3121     3126
     2128       14       15       14        0     2990     2991     2907     2908     3284     3120     3118     3123
     2129       14       15       14        0     2991     2992     2906     2907     3285     3117     3115     3120
     2130       14       15       14        0     2992     2993     2905     2906     3286     3114     3112     3117
     2131       14       15       14        0     2993     2994     2904     2905     3287     3111     3109     3114
     2132       14       15       14        0     2994     2995     2903     2904     3288     3108     3106     3111
     2133       14       15       14        0     2995     2996     2902     2903     3289     3105     3103     3108
     2134       14       15       14        0     2996     2997     2901     2902     3290     3102     3100     3105
     2135       14       15       14        0     2997     2998     2900     2901     3291     3099     3097     3102
     2136       14       15       14        0     2998     2999     2899     2900     3292     3096     3094     3099
     2137       14       15       14        0     2999     3000     2898     2899     3293     3093     3091     3096
     2138       14       15       14        0     3000     3001     2897     2898     3294     3090     3088     3093
     2139       14       15       14        0     3001     3002     2896     2897     3295     3087     3085     3090
     2140       14       15       14        0     3002     3003     2895     2896     3296     3084     3082     3087
     2141       14       15       14        0     3003     3004     2894     2895     3297     3081     3079     3084
     2142       14       15       14        0     3004     3005     2893     2894     3298     3078     3076     3081
     2143       14       15       14        0     3005     3006     2892     2893     3299     3075     3073     3078
     2144       14       15       14        0     3006     3007     2891     2892     3300     3072     3070     3075
! ... 17 like lines cut
eblock,10,,,36
(15i9)
     2161       15       14       15        0     3023     2988     2910     2911     3282     3129     3127     3131
     2162       15       14       15        0     2988     2989     2909     2910     3281     3126     3124     3129
     2163       15       14       15        0     2989     2990     2908     2909     3283     3123     3121     3126
     2164       15       14       15        0     2990     2991     2907     2908     3284     3120     3118     3123
     2165       15       14       15        0     2991     2992     2906     2907     3285     3117     3115     3120
     2166       15       14       15        0     2992     2993     2905     2906     3286     3114     3112     3117
     2167       15       14       15        0     2993     2994     2904     2905     3287     3111     3109     3114
     2168       15       14       15        0     2994     2995     2903     2904     3288     3108     3106     3111
     2169       15       14       15        0     2995     2996     2902     2903     3289     3105     3103     3108
     2170       15       14       15        0     2996     2997     2901     2902     3290     3102     3100     3105
     2171       15       14       15        0     2997     2998     2900     2901     3291     3099     3097     3102
     2172       15       14       15        0     2998     2999     2899     2900     3292     3096     3094     3099
     2173       15       14       15        0     2999     3000     2898     2899     3293     3093     3091     3096
     2174       15       14       15        0     3000     3001     2897     2898     3294     3090     3088     3093
     2175       15       14       15        0     3001     3002     2896     2897     3295     3087     3085     3090
     2176       15       14       15        0     3002     3003     2895     2896     3296     3084     3082     3087
     2177       15       14       15        0     3003     3004     2894     2895     3297     3081     3079     3084
     2178       15       14       15        0     3004     3005     2893     2894     3298     3078     3076     3081
     2179       15       14       15        0     3005     3006     2892     2893     3299     3075     3073     3078
     2180       15       14       15        0     3006     3007     2891     2892     3300     3072     3070     3075
! ... 17 like lines cut
keyo,cid,8,2               ! auto create asymmetric contact (from Program Controlled setting)
keyo,cid,10,0              ! adjust contact stiffness each NR iteration (from Program Controlled setting)
keyo,cid,12,5              ! bonded always
keyo,cid,18,1              ! small sliding turned on by application
keyo,cid,2,0               ! augmented Lagrange (from Program Controlled setting)
keyo,cid,4,0               ! on Gauss point (from Program Controlled setting)
keyo,cid,9,1               ! ignore initial gaps/penetration
keyo,cid,7,0               ! No Prediction
rmod,tid,3,10.      ! FKN
rmod,tid,5,0.       ! ICONT
rmod,tid,6,0.       ! PINB
rmod,tid,10,0.      ! CNOF
rmod,tid,12,0.      ! FKT
rmod,tid,36,53      ! WB DSID
rmod,cid,3,10.      ! FKN
rmod,cid,5,0.       ! ICONT
rmod,cid,6,0.       ! PINB
rmod,cid,10,0.      ! CNOF
rmod,cid,12,0.      ! FKT
rmod,cid,36,53      ! WB DSID
*set,_maxkxx,917400.
rmod,cid,14,_maxkxx/_ASMDIAG         ! TCC, Divide by Length since Traction Based
rmod,tid,14,_maxkxx/_ASMDIAG      ! TCC, Divide by Length since Traction Based
keyo,cid,1,2     ! Pure thermal contact
/com,*********** Create Contact "Contact Region 5" ***********
/com,            Real Constant Set For Above Contact Is 17 & 16 
*set,tid,17
*set,cid,16
r,tid
r,cid
et,tid,170
et,cid,174
eblock,10,,,17
(15i9)
     2197       17       17       17        0       79       85       81      121      797      804      805      798
     2198       17       17       17        0       18       81       85       19      548      804      551      547
     2199       17       17       17        0      391       60      120      393      726      724      899     1480
     2200       17       17       17        0      393      120       59      394      899      719      721     1481
     2201       17       17       17        0       59      120       66       67      719      748      746      717
     2202       17       17       17        0      109       74       76       77      783      782      789      791
     2203       17       17       17        0       39       98      109       38      634      856      630      629
     2204       17       17       17        0       53       52       74      115      686      688      784      692
     2205       17       17       17        0       51      115       74      109      683      784      783      681
     2206       17       17       17        0      114       51      109       98      682      681      856      857
     2207       17       17       17        0       67       85       79       59      752      797      718      717
     2208       17       17       17        0       61       52       83       60      687      689      723      722
     2209       17       17       17        0       76       74       52       61      782      688      687      727
     2210       17       17       17        0      391      392       61       60     1479      730      722      726
     2211       17       17       17        0      421      420       18       19     1508      550      547      553
     2212       17       17       17        0      420      419       17       18     1507      546      543      550
     2213       17       17       17        0      454      455       39       38     1541      636      629      632
-1
eblock,10,,,17
(15i9)
     2214       16       16       16        0       79       85       81      121      797      804      805      798
     2215       16       16       16        0       18       81       85       19      548      804      551      547
     2216       16       16       16        0      391       60      120      393      726      724      899     1480
     2217       16       16       16        0      393      120       59      394      899      719      721     1481
     2218       16       16       16        0       59      120       66       67      719      748      746      717
     2219       16       16       16        0      109       74       76       77      783      782      789      791
     2220       16       16       16        0       39       98      109       38      634      856      630      629
     2221       16       16       16        0       53       52       74      115      686      688      784      692
     2222       16       16       16        0       51      115       74      109      683      784      783      681
     2223       16       16       16        0      114       51      109       98      682      681      856      857
     2224       16       16       16        0       67       85       79       59      752      797      718      717
     2225       16       16       16        0       61       52       83       60      687      689      723      722
     2226       16       16       16        0       76       74       52       61      782      688      687      727
     2227       16       16       16        0      391      392       61       60     1479      730      722      726
     2228       16       16       16        0      421      420       18       19     1508      550      547      553
     2229       16       16       16        0      420      419       17       18     1507      546      543      550
     2230       16       16       16        0      454      455       39       38     1541      636      629      632
-1
eblock,10,,,36
(15i9)
     2231       16       17       16        0     3463     3428     3350     3351     3722     3569     3567     3571
     2232       16       17       16        0     3428     3429     3349     3350     3721     3566     3564     3569
     2233       16       17       16        0     3429     3430     3348     3349     3723     3563     3561     3566
     2234       16       17       16        0     3430     3431     3347     3348     3724     3560     3558     3563
     2235       16       17       16        0     3431     3432     3346     3347     3725     3557     3555     3560
     2236       16       17       16        0     3432     3433     3345     3346     3726     3554     3552     3557
     2237       16       17       16        0     3433     3434     3344     3345     3727     3551     3549     3554
     2238       16       17       16        0     3434     3435     3343     3344     3728     3548     3546     3551
     2239       16       17       16        0     3435     3436     3342     3343     3729     3545     3543     3548
     2240       16       17       16        0     3436     3437     3341     3342     3730     3542     3540     3545
     2241       16       17       16        0     3437     3438     3340     3341     3731     3539     3537     3542
     2242       16       17       16        0     3438     3439     3339     3340     3732     3536     3534     3539
     2243       16       17       16        0     3439     3440     3338     3339     3733     3533     3531     3536
     2244       16       17       16        0     3440     3441     3337     3338     3734     3530     3528     3533
     2245       16       17       16        0     3441     3442     3336     3337     3735     3527     3525     3530
     2246       16       17       16        0     3442     3443     3335     3336     3736     3524     3522     3527
     2247       16       17       16        0     3443     3444     3334     3335     3737     3521     3519     3524
     2248       16       17       16        0     3444     3445     3333     3334     3738     3518     3516     3521
     2249       16       17       16        0     3445     3446     3332     3333     3739     3515     3513     3518
     2250       16       17       16        0     3446     3447     3331     3332     3740     3512     3510     3515
! ... 17 like lines cut
eblock,10,,,36
(15i9)
     2267       17       16       17        0     3463     3428     3350     3351     3722     3569     3567     3571
     2268       17       16       17        0     3428     3429     3349     3350     3721     3566     3564     3569
     2269       17       16       17        0     3429     3430     3348     3349     3723     3563     3561     3566
     2270       17       16       17        0     3430     3431     3347     3348     3724     3560     3558     3563
     2271       17       16       17        0     3431     3432     3346     3347     3725     3557     3555     3560
     2272       17       16       17        0     3432     3433     3345     3346     3726     3554     3552     3557
     2273       17       16       17        0     3433     3434     3344     3345     3727     3551     3549     3554
     2274       17       16       17        0     3434     3435     3343     3344     3728     3548     3546     3551
     2275       17       16       17        0     3435     3436     3342     3343     3729     3545     3543     3548
     2276       17       16       17        0     3436     3437     3341     3342     3730     3542     3540     3545
     2277       17       16       17        0     3437     3438     3340     3341     3731     3539     3537     3542
     2278       17       16       17        0     3438     3439     3339     3340     3732     3536     3534     3539
     2279       17       16       17        0     3439     3440     3338     3339     3733     3533     3531     3536
     2280       17       16       17        0     3440     3441     3337     3338     3734     3530     3528     3533
     2281       17       16       17        0     3441     3442     3336     3337     3735     3527     3525     3530
     2282       17       16       17        0     3442     3443     3335     3336     3736     3524     3522     3527
     2283       17       16       17        0     3443     3444     3334     3335     3737     3521     3519     3524
     2284       17       16       17        0     3444     3445     3333     3334     3738     3518     3516     3521
     2285       17       16       17        0     3445     3446     3332     3333     3739     3515     3513     3518
     2286       17       16       17        0     3446     3447     3331     3332     3740     3512     3510     3515
! ... 17 like lines cut
keyo,cid,8,2               ! auto create asymmetric contact (from Program Controlled setting)
keyo,cid,10,0              ! adjust contact stiffness each NR iteration (from Program Controlled setting)
keyo,cid,12,5              ! bonded always
keyo,cid,18,1              ! small sliding turned on by application
keyo,cid,2,0               ! augmented Lagrange (from Program Controlled setting)
keyo,cid,4,0               ! on Gauss point (from Program Controlled setting)
keyo,cid,9,1               ! ignore initial gaps/penetration
keyo,cid,7,0               ! No Prediction
rmod,tid,3,10.      ! FKN
rmod,tid,5,0.       ! ICONT
rmod,tid,6,0.       ! PINB
rmod,tid,10,0.      ! CNOF
rmod,tid,12,0.      ! FKT
rmod,tid,36,56      ! WB DSID
rmod,cid,3,10.      ! FKN
rmod,cid,5,0.       ! ICONT
rmod,cid,6,0.       ! PINB
rmod,cid,10,0.      ! CNOF
rmod,cid,12,0.      ! FKT
rmod,cid,36,56      ! WB DSID
*set,_maxkxx,917400.
rmod,cid,14,_maxkxx/_ASMDIAG         ! TCC, Divide by Length since Traction Based
rmod,tid,14,_maxkxx/_ASMDIAG      ! TCC, Divide by Length since Traction Based
keyo,cid,1,2     ! Pure thermal contact
/com,*********** Create Contact "Contact Region 6" ***********
/com,            Real Constant Set For Above Contact Is 19 & 18 
*set,tid,19
*set,cid,18
r,tid
r,cid
et,tid,170
et,cid,174
eblock,10,,,21
(15i9)
     2303       19       19       19        0       83      120       60       60      809      724       60      723
     2304       19       19       19        0       69       66      122      123      747      749      901      760
     2305       19       19       19        0       66      120       83      122      748      809      810      749
     2306       19       19       19        0       67       10       19       85      514      512      551      752
     2307       19       19       19        0       10       67      410      409      514      754     1497      516
     2308       19       19       19        0       67       66      404      410      746      751     1492      754
     2309       19       19       19        0       59      120       66       67      719      748      746      717
     2310       19       19       19        0       53       52       74      115      686      688      784      692
     2311       19       19       19        0       51      115       74      109      683      784      783      681
     2312       19       19       19        0      381      115       51      382      887      683      685     1469
     2313       19       19       19        0       98       50       95      114      679      677      848      857
     2314       19       19       19        0      376      114       95      378      885      848      850     1463
     2315       19       19       19        0      382       51      114      376      685      682      885     1464
     2316       19       19       19        0       61       52       83       60      687      689      723      722
     2317       19       19       19        0       53       75       83       52      691      786      689      686
     2318       19       19       19        0       39       40       50       98      633      638      679      634
     2319       19       19       19        0       40       41       97       50      637      642      678      638
     2320       19       19       19        0      406      404       66       69     1491      751      747      762
     2321       19       19       19        0      422      421       19       10     1509      553      512      517
     2322       19       19       19        0      455      456       40       39     1542      640      633      636
     2323       19       19       19        0      456      457       41       40     1543      644      637      640
-1
eblock,10,,,21
(15i9)
     2324       18       18       18        0       83      120       60       60      809      724       60      723
     2325       18       18       18        0       69       66      122      123      747      749      901      760
     2326       18       18       18        0       66      120       83      122      748      809      810      749
     2327       18       18       18        0       67       10       19       85      514      512      551      752
     2328       18       18       18        0       10       67      410      409      514      754     1497      516
     2329       18       18       18        0       67       66      404      410      746      751     1492      754
     2330       18       18       18        0       59      120       66       67      719      748      746      717
     2331       18       18       18        0       53       52       74      115      686      688      784      692
     2332       18       18       18        0       51      115       74      109      683      784      783      681
     2333       18       18       18        0      381      115       51      382      887      683      685     1469
     2334       18       18       18        0       98       50       95      114      679      677      848      857
     2335       18       18       18        0      376      114       95      378      885      848      850     1463
     2336       18       18       18        0      382       51      114      376      685      682      885     1464
     2337       18       18       18        0       61       52       83       60      687      689      723      722
     2338       18       18       18        0       53       75       83       52      691      786      689      686
     2339       18       18       18        0       39       40       50       98      633      638      679      634
     2340       18       18       18        0       40       41       97       50      637      642      678      638
     2341       18       18       18        0      406      404       66       69     1491      751      747      762
     2342       18       18       18        0      422      421       19       10     1509      553      512      517
     2343       18       18       18        0      455      456       40       39     1542      640      633      636
     2344       18       18       18        0      456      457       41       40     1543      644      637      640
-1
eblock,10,,,36
(15i9)
     2345       18       19       18        0     3903     3868     3790     3791     4162     4009     4007     4011
     2346       18       19       18        0     3868     3869     3789     3790     4161     4006     4004     4009
     2347       18       19       18        0     3869     3870     3788     3789     4163     4003     4001     4006
     2348       18       19       18        0     3870     3871     3787     3788     4164     4000     3998     4003
     2349       18       19       18        0     3871     3872     3786     3787     4165     3997     3995     4000
     2350       18       19       18        0     3872     3873     3785     3786     4166     3994     3992     3997
     2351       18       19       18        0     3873     3874     3784     3785     4167     3991     3989     3994
     2352       18       19       18        0     3874     3875     3783     3784     4168     3988     3986     3991
     2353       18       19       18        0     3875     3876     3782     3783     4169     3985     3983     3988
     2354       18       19       18        0     3876     3877     3781     3782     4170     3982     3980     3985
     2355       18       19       18        0     3877     3878     3780     3781     4171     3979     3977     3982
     2356       18       19       18        0     3878     3879     3779     3780     4172     3976     3974     3979
     2357       18       19       18        0     3879     3880     3778     3779     4173     3973     3971     3976
     2358       18       19       18        0     3880     3881     3777     3778     4174     3970     3968     3973
     2359       18       19       18        0     3881     3882     3776     3777     4175     3967     3965     3970
     2360       18       19       18        0     3882     3883     3775     3776     4176     3964     3962     3967
     2361       18       19       18        0     3883     3884     3774     3775     4177     3961     3959     3964
     2362       18       19       18        0     3884     3885     3773     3774     4178     3958     3956     3961
     2363       18       19       18        0     3885     3886     3772     3773     4179     3955     3953     3958
     2364       18       19       18        0     3886     3887     3771     3772     4180     3952     3950     3955
! ... 17 like lines cut
eblock,10,,,36
(15i9)
     2381       19       18       19        0     3903     3868     3790     3791     4162     4009     4007     4011
     2382       19       18       19        0     3868     3869     3789     3790     4161     4006     4004     4009
     2383       19       18       19        0     3869     3870     3788     3789     4163     4003     4001     4006
     2384       19       18       19        0     3870     3871     3787     3788     4164     4000     3998     4003
     2385       19       18       19        0     3871     3872     3786     3787     4165     3997     3995     4000
     2386       19       18       19        0     3872     3873     3785     3786     4166     3994     3992     3997
     2387       19       18       19        0     3873     3874     3784     3785     4167     3991     3989     3994
     2388       19       18       19        0     3874     3875     3783     3784     4168     3988     3986     3991
     2389       19       18       19        0     3875     3876     3782     3783     4169     3985     3983     3988
     2390       19       18       19        0     3876     3877     3781     3782     4170     3982     3980     3985
     2391       19       18       19        0     3877     3878     3780     3781     4171     3979     3977     3982
     2392       19       18       19        0     3878     3879     3779     3780     4172     3976     3974     3979
     2393       19       18       19        0     3879     3880     3778     3779     4173     3973     3971     3976
     2394       19       18       19        0     3880     3881     3777     3778     4174     3970     3968     3973
     2395       19       18       19        0     3881     3882     3776     3777     4175     3967     3965     3970
     2396       19       18       19        0     3882     3883     3775     3776     4176     3964     3962     3967
     2397       19       18       19        0     3883     3884     3774     3775     4177     3961     3959     3964
     2398       19       18       19        0     3884     3885     3773     3774     4178     3958     3956     3961
     2399       19       18       19        0     3885     3886     3772     3773     4179     3955     3953     3958
     2400       19       18       19        0     3886     3887     3771     3772     4180     3952     3950     3955
! ... 17 like lines cut
keyo,cid,8,2               ! auto create asymmetric contact (from Program Controlled setting)
keyo,cid,10,0              ! adjust contact stiffness each NR iteration (from Program Controlled setting)
keyo,cid,12,5              ! bonded always
keyo,cid,18,1              ! small sliding turned on by application
keyo,cid,2,0               ! augmented Lagrange (from Program Controlled setting)
keyo,cid,4,0               ! on Gauss point (from Program Controlled setting)
keyo,cid,9,1               ! ignore initial gaps/penetration
keyo,cid,7,0               ! No Prediction
rmod,tid,3,10.      ! FKN
rmod,tid,5,0.       ! ICONT
rmod,tid,6,0.       ! PINB
rmod,tid,10,0.      ! CNOF
rmod,tid,12,0.      ! FKT
rmod,tid,36,59      ! WB DSID
rmod,cid,3,10.      ! FKN
rmod,cid,5,0.       ! ICONT
rmod,cid,6,0.       ! PINB
rmod,cid,10,0.      ! CNOF
rmod,cid,12,0.      ! FKT
rmod,cid,36,59      ! WB DSID
*set,_maxkxx,917400.
rmod,cid,14,_maxkxx/_ASMDIAG         ! TCC, Divide by Length since Traction Based
rmod,tid,14,_maxkxx/_ASMDIAG      ! TCC, Divide by Length since Traction Based
keyo,cid,1,2     ! Pure thermal contact
nsel,all
esel,all
/wb,contact,end            !  done creating contacts
/golist
/wb,load,start             !  starting to send loads
/com,*********** Create "Heat Flux" ***********
et,20,152
eblock,10,,,216
(15i9)
     2417       20       20       20        0     1594     1664     1665     1593     1817     1956     1815     1814
     2418       20       20       20        0     1595     1663     1664     1594     1819     1954     1817     1816
     2419       20       20       20        0     1596     1662     1663     1595     1821     1952     1819     1818
     2420       20       20       20        0     1597     1661     1662     1596     1823     1950     1821     1820
     2421       20       20       20        0     1598     1660     1661     1597     1825     1948     1823     1822
     2422       20       20       20        0     1599     1659     1660     1598     1827     1946     1825     1824
     2423       20       20       20        0     1600     1658     1659     1599     1829     1944     1827     1826
     2424       20       20       20        0     1601     1657     1658     1600     1831     1942     1829     1828
     2425       20       20       20        0     1602     1656     1657     1601     1833     1940     1831     1830
     2426       20       20       20        0     1603     1655     1656     1602     1835     1938     1833     1832
     2427       20       20       20        0     1604     1654     1655     1603     1837     1936     1835     1834
     2428       20       20       20        0     1605     1653     1654     1604     1839     1934     1837     1836
     2429       20       20       20        0     1606     1652     1653     1605     1841     1932     1839     1838
     2430       20       20       20        0     1607     1651     1652     1606     1843     1930     1841     1840
     2431       20       20       20        0     1608     1650     1651     1607     1845     1928     1843     1842
     2432       20       20       20        0     1609     1649     1650     1608     1847     1926     1845     1844
     2433       20       20       20        0     1610     1648     1649     1609     1849     1924     1847     1846
     2434       20       20       20        0     1611     1647     1648     1610     1851     1922     1849     1848
     2435       20       20       20        0     1612     1646     1647     1611     1853     1920     1851     1850
     2436       20       20       20        0     1613     1645     1646     1612     1855     1918     1853     1852
! ... 197 like lines cut
esel,s,type,,20
keyop,20,8,1        ! include heat flux
esel,all
fcum,add                   ! add nodal forces up (needed in case have loads on the same edge,vertex)
fcum                       ! reset default on fcum command since done sending WB F loads
/com,*********** Create "Convection" ***********
et,21,152
eblock,10,,,402
(15i9)
     2633       21       21       21        0       83      120       60       60      809      724       60      723
     2634       21       21       21        0       30       29       31       31      592      593       31      596
     2635       21       21       21        0       50       97       95       95      678      847       95      677
     2636       21       21       21        0      470      469       12       12     1555      526       12      527
     2637       21       21       21        0      380       46       45       53      664      657      658      694
     2638       21       21       21        0      115      381      380       53      887     1468      694      692
     2639       21       21       21        0      390      396      125      124     1478      908      904      906
     2640       21       21       21        0       57       86      124      125      709      819      904      710
     2641       21       21       21        0      110        9       57      125      510      507      710      877
     2642       21       21       21        0       58      125      396      395      714      908     1483      716
     2643       21       21       21        0      110      125       58       78      877      714      713      795
     2644       21       21       21        0       64        9      107       63      508      509      737      735
     2645       21       21       21        0      110       84      107        9      814      812      509      510
     2646       21       21       21        0      116       56      124       86      704      705      819      818
     2647       21       21       21        0      124       56       76       61      705      703      727      728
     2648       21       21       21        0      390      124       61      392      906      728      730     1477
     2649       21       21       21        0       57       65      106       86      708      743      817      709
     2650       21       21       21        0       64       65       57        9      740      708      507      508
     2651       21       21       21        0       69       66      122      123      747      749      901      760
     2652       21       21       21        0      123      122       73      112      901      780      779      881
! ... 383 like lines cut
esel,s,type,,21
keyop,21,8,2
keyop,21,13,0
esel,all
/com,***************** Define Uniform Initial temperature ***************
tunif,22.
/gst,on,on
fini
*get,_numnode,node,0,count
*get,_numelem,elem,0,count
*get, _MAXELEMNUM, elem, 0, NUM, MAX
*get, _MAXNODENUM, node, 0, NUM, MAX
*get, _MAXELEMTYPE, etyp, 0, NUM, MAX
*get, _MAXREALCONST, rcon, 0, NUM, MAX
/go
/wb,load,end               !  done creating loads
/com,--- Number of total nodes = %_numnode%
/com,--- Number of contact elements = 1274
/com,--- Number of spring elements = 0
/com,--- Number of bearing elements = 0
/com,--- Number of solid elements = 402
/com,--- Number of condensed parts = 0
/com,--- Number of total elements = %_numelem%
*get,_wallbsol,active,,time,wall
/com,****************************************************************************
/com,*************************    SOLUTION       ********************************
/com,****************************************************************************
/solu
antype,0                   ! static analysis
!eqsl,sparse               ! using sparse solver which is default so no eqsl command needed
cntr,print,1               ! print out contact info and also make no initial contact an error
rescontrol,,none                 ! Do not keep any restart files
dmpoption,emat,no             ! Don't combine emat file for DANSYS
dmpoption,esav,no             ! Don't combine esav file for DANSYS
/com,****************************************************
/com,******************* SOLVE FOR LS 1 OF 1 ****************
esel,s,type,,20
nsle
sf,all,hflux,347.
nsel,all
esel,all
esel,s,type,,21
nsle
sf,all,conv,0.28,22.
nsel,all
esel,all
/nopr
/gopr
autots,on
nsub,1,10,1
time,30.
outres,erase
outres,all,none
outres,nsol,all
outres,rsol,all
outres,eangl,all
outres,veng,all
outres,fflux,all,
outres,cont,all,
/nopr
esel,s,type,,21
cm,_elmisc,elem
esel,all
/gopr
outres,misc,all,_elmisc
cnvtol,heat,,1.e-003,,1.e-006 ! Program Controlled. Set MINREF equivalent of 1e-6 Watts
! *********** WB SOLVE COMMAND ***********
! check interactive state
*get,ANSINTER_,active,,int
*if,ANSINTER_,ne,0,then
/eof
*endif
solve
/com *************** Write FE CONNECTORS ********* 
CEWRITE,file,ce,,INTE
/com,****************************************************
/com,*************** FINISHED SOLVE FOR LS 1 *************
*get,_wallasol,active,,time,wall
/post1
xmlo,ENCODING,ISO-8859-1
xmlo,parm
/xml,parm,xml
fini
/gopr
*get,_walldone,active,,time,wall
_preptime=(_wallbsol-_wallstrt)*3600
_solvtime=(_wallasol-_wallbsol)*3600
_posttime=(_walldone-_wallasol)*3600
_totaltim=(_walldone-_wallstrt)*3600
*get,_dlbratio,active,0,solu,dlbr
*get,_combtime,active,0,solu,comb
*get,_ssmode,active,0,solu,ssmm
*get,_ndofs,active,0,solu,ndof
/fclean				!clean distributed files
/com,--- Total number of nodes = %_numnode%
/com,--- Total number of elements = %_numelem%
/com,--- Element load balance ratio = %_dlbratio%
/com,--- Time to combine distributed files = %_combtime%
/com,--- Sparse memory mode = %_ssmode%
/com,--- Number of DOF = %_ndofs%
/wb,file,end               ! done with WB generated input
